NW08_EXP_CURRENTS.CSV
Element, I1_1, Ang1_1, I1_2, Ang1_2, I1_3, Ang1_3, I1_4, Ang1_4, Iresid1, AngResid1, I2_1, Ang2_1, I2_2, Ang2_2, I2_3, Ang2_3, I2_4, Ang2_4, Iresid2, AngResid2
Vsource.SOURCE,    260.908,   154.83,    260.908,    34.83,     260.91,   -85.17,          0,     0.00, 0.00211648,   -79.12,    260.908,   -25.17,    260.908,  -145.17,     260.91,    94.83,          0,     0.00, 0.00211648,   100.88
Line.L_BSB_MT_2356,    1.83553,   154.92,    1.83554,    34.92,    1.83549,   -85.08,          0,     0.00, 1.97497E-005,   128.41,    1.83553,   -25.08,    1.83554,  -145.08,    1.83549,    94.92,          0,     0.00, 1.97496E-005,   -51.59
Line.L_BSB_MT_2357,    39.5648,   -25.14,    39.5649,  -145.14,    39.5648,    94.86,          0,     0.00, 0.00032393,   176.29,    39.5648,   154.86,    39.5649,    34.86,    39.5648,   -85.14,          0,     0.00, 0.00032393,    -3.71
Line.L_BSB_MT_2360,     3.9931,   155.17,    3.99279,    35.17,    3.99287,   -84.83,          0,     0.00, 0.000443064,  -175.49,     3.9931,   -24.83,    3.99279,  -144.83,    3.99287,    95.17,          0,     0.00, 0.000443063,     4.51
Line.L_BSB_MT_2361,    1.72629,   -21.50,    1.72622,  -141.50,    1.72626,    98.50,          0,     0.00, 4.03808E-005,  -179.63,    1.72629,   158.50,    1.72622,    38.50,    1.72626,   -81.50,          0,     0.00, 4.03807E-005,     0.37
Line.L_BSB_MT_8919,    58.5046,   155.16,     58.504,    35.16,    58.5044,   -84.84,          0,     0.00, 0.00122191,  -133.85,    58.5046,   -24.84,     58.504,  -144.84,    58.5044,    95.16,          0,     0.00, 0.00122191,    46.15
Line.L_BSB_MT_8957, 7.83645E-011,    68.20, 8.85158E-011,    -9.46, 8.23181E-011,   -45.00,          0,     0.00, 1.74623E-010,     0.00, 3.25391E-011,   153.43, 9.20344E-011,   161.57, 9.31777E-011,   141.34,          0,     0.00, 2.14856E-010,   151.70
Line.L_BSB_MT_8959,   0.149573,   108.40,   0.149516,   -11.57,   0.149526,  -131.62,          0,     0.00, 0.000157813,   102.02,   0.149573,   -71.60,   0.149516,   168.43,   0.149526,    48.38,          0,     0.00, 0.000157813,   -77.98
Line.L_BSB_MT_8960,   0.725289,   -25.14,   0.725416,  -145.14,   0.725386,    94.86,          0,     0.00, 0.00016595,   164.65,   0.725289,   154.86,   0.725416,    34.86,   0.725386,   -85.14,          0,     0.00, 0.00016595,   -15.35
Line.L_BSB_MT_8962,    29.4904,   -24.84,    29.4899,  -144.84,    29.4903,    95.16,          0,     0.00, 0.000867479,    42.45,    29.4904,   155.16,    29.4899,    35.16,    29.4903,   -84.84,          0,     0.00, 0.000867479,  -137.55
Line.L_BSB_MT_8963,   0.515281,   155.17,   0.515211,    35.17,   0.515205,   -84.84,          0,     0.00, 0.000191768,  -177.88,   0.515281,   -24.83,   0.515211,  -144.83,   0.515205,    95.16,          0,     0.00, 0.000191768,     2.12
Line.L_BSB_MT_8964,   0.515281,   155.17,   0.515211,    35.17,   0.515205,   -84.84,          0,     0.00, 0.000191768,  -177.88,   0.515281,   -24.83,   0.515211,  -144.83,   0.515205,    95.16,          0,     0.00, 0.000191768,     2.12
Line.L_BSB_MT_8965,    8.09336,   -24.85,    8.09363,  -144.85,    8.09352,    95.15,          0,     0.00, 0.000298826,   166.06,    8.09336,   155.15,    8.09363,    35.15,    8.09352,   -84.85,          0,     0.00, 0.000298826,   -13.94
Line.L_BSB_MT_8966,    14.1511,   155.15,    14.1506,    35.15,     14.151,   -84.85,          0,     0.00, 0.000505865,  -164.17,    14.1511,   -24.85,    14.1506,  -144.85,     14.151,    95.15,          0,     0.00, 0.000505865,    15.83
Line.L_BSB_MT_7473,    15.4406,   154.49,    15.4407,    34.49,    15.4408,   -85.51,          0,     0.00, 0.00010259,   -83.63,    15.4406,   -25.51,    15.4407,  -145.51,    15.4408,    94.49,          0,     0.00, 0.00010259,    96.36
Line.L_BSB_MT_7577,    1.83553,   154.92,    1.83554,    34.92,    1.83549,   -85.08,          0,     0.00, 1.97495E-005,   128.41,    1.83553,   -25.08,    1.83554,  -145.08,    1.83549,    94.92,          0,     0.00, 1.97494E-005,   -51.59
Line.L_BSB_MT_7578,    25.0351,   -25.14,    25.0351,  -145.14,    25.0351,    94.86,          0,     0.00, 0.000199557,   164.40,    25.0351,   154.86,    25.0351,    34.86,    25.0351,   -85.14,          0,     0.00, 0.000199557,   -15.60
Line.L_BSB_MT_6345,    260.908,   154.83,    260.908,    34.83,    260.909,   -85.17,          0,     0.00,  0.0019297,   -83.51,    260.908,   -25.17,    260.908,  -145.17,    260.909,    94.83,          0,     0.00,  0.0019297,    96.49
Line.L_BSB_MT_3678,    5.20255,   -24.85,    5.20282,  -144.85,    5.20271,    95.15,          0,     0.00, 0.000299227,   165.99,    5.20255,   155.15,    5.20282,    35.15,    5.20271,   -84.85,          0,     0.00, 0.000299227,   -14.01
Line.L_BSB_MT_3679,    8.09336,   -24.85,    8.09363,  -144.85,    8.09352,    95.15,          0,     0.00, 0.000298826,   166.06,    8.09336,   155.15,    8.09363,    35.15,    8.09352,   -84.85,          0,     0.00, 0.000298826,   -13.94
Line.L_BSB_MT_3680,    8.09336,   155.15,    8.09363,    35.15,    8.09352,   -84.85,          0,     0.00, 0.000298826,   -13.94,    8.09336,   -24.85,    8.09363,  -144.85,    8.09352,    95.15,          0,     0.00, 0.000298826,   166.06
Line.L_BSB_MT_3681,    8.09336,   155.15,    8.09363,    35.15,    8.09352,   -84.85,          0,     0.00, 0.000298826,   -13.94,    8.09336,   -24.85,    8.09363,  -144.85,    8.09352,    95.15,          0,     0.00, 0.000298826,   166.06
Line.L_BSB_MT_3682,    8.09336,   155.15,    8.09363,    35.15,    8.09352,   -84.85,          0,     0.00, 0.000298826,   -13.94,    8.09336,   -24.85,    8.09363,  -144.85,    8.09352,    95.15,          0,     0.00, 0.000298826,   166.06
Line.L_BSB_MT_3683,    8.09336,   155.15,    8.09363,    35.15,    8.09352,   -84.85,          0,     0.00, 0.000298826,   -13.94,    8.09336,   -24.85,    8.09363,  -144.85,    8.09352,    95.15,          0,     0.00, 0.000298826,   166.06
Line.L_BSB_MT_3684,    8.09336,   -24.85,    8.09363,  -144.85,    8.09352,    95.15,          0,     0.00, 0.000298826,   166.06,    8.09336,   155.15,    8.09363,    35.15,    8.09352,   -84.85,          0,     0.00, 0.000298826,   -13.94
Line.L_BSB_MT_3685,    5.53803,   -24.83,    5.53811,  -144.83,    5.53812,    95.17,          0,     0.00, 0.000248299,    82.78,    5.53803,   155.17,    5.53811,    35.17,    5.53812,   -84.83,          0,     0.00, 0.000248299,   -97.22
Line.L_BSB_MT_3686,    3.60602,   -24.83,    3.60613,  -144.83,     3.6062,    95.17,          0,     0.00, 0.000289939,   115.94,    3.60602,   155.17,    3.60613,    35.17,     3.6062,   -84.83,          0,     0.00, 0.000289939,   -64.06
Line.L_BSB_MT_3687,     1.1591,   -24.83,     1.1591,  -144.83,     1.1591,    95.17,          0,     0.00, 2.09735E-007,   -55.90,     1.1591,   155.17,     1.1591,    35.17,     1.1591,   -84.83,          0,     0.00, 2.09763E-007,   124.10
Line.L_BSB_MT_3688,     1.9319,   155.17,     1.9319,    35.17,     1.9319,   -84.83,          0,     0.00, 3.47236E-007,   123.80,     1.9319,   -24.83,     1.9319,  -144.83,     1.9319,    95.17,          0,     0.00, 3.47244E-007,   -56.20
Line.L_BSB_MT_3689,     1.9319,   155.17,     1.9319,    35.17,     1.9319,   -84.83,          0,     0.00, 3.47288E-007,   123.81,     1.9319,   -24.83,     1.9319,  -144.83,     1.9319,    95.17,          0,     0.00, 3.47252E-007,   -56.19
Line.L_BSB_MT_3690, 1.74623E-010,   180.00, 6.50781E-011,  -153.43, 1.30156E-010,  -116.57,          0,     0.00, 3.25391E-010,  -153.43, 1.04935E-010,   -33.69, 6.50781E-011,    26.57, 1.84069E-010,    71.57,          0,     0.00, 2.50361E-010,    35.54
Line.L_BSB_MT_3691, 1.45519E-010,    53.13, 4.1159E-011,    45.00, 5.82077E-011,    90.00,          0,     0.00, 2.34643E-010,    60.26, 8.73115E-011,   -90.00, 1.04935E-010,  -123.69, 5.82077E-011,     0.00,          0,     0.00, 1.74623E-010,   -90.00
Line.L_BSB_MT_3692,    8.09336,   155.15,    8.09363,    35.15,    8.09352,   -84.85,          0,     0.00, 0.000298826,   -13.94,    8.09336,   -24.85,    8.09363,  -144.85,    8.09352,    95.15,          0,     0.00, 0.000298826,   166.06
Line.L_BSB_MT_3729,    3.66185,   155.15,    3.66171,    35.16,    3.66189,   -84.84,          0,     0.00, 7.90562E-005,   -91.36,    3.66185,   -24.85,    3.66171,  -144.84,    3.66189,    95.16,          0,     0.00, 7.90562E-005,    88.64
Line.L_BSB_MT_3747,    57.7266,   -24.84,     57.726,  -144.84,    57.7264,    95.16,          0,     0.00, 0.00115809,    45.45,    57.7266,   155.16,     57.726,    35.16,    57.7264,   -84.84,          0,     0.00, 0.00115809,  -134.55
Line.L_BSB_MT_3749,    57.7266,   -24.84,     57.726,  -144.84,    57.7264,    95.16,          0,     0.00, 0.00115809,    45.45,    57.7266,   155.16,     57.726,    35.16,    57.7264,   -84.84,          0,     0.00, 0.00115809,  -134.55
Line.L_BSB_MT_3750,    57.7266,   -24.84,     57.726,  -144.84,    57.7264,    95.16,          0,     0.00, 0.00115809,    45.45,    57.7266,   155.16,     57.726,    35.16,    57.7264,   -84.84,          0,     0.00, 0.00115809,  -134.55
Line.L_BSB_MT_3751,    57.7266,   -24.84,     57.726,  -144.84,    57.7264,    95.16,          0,     0.00, 0.00115809,    45.45,    57.7266,   155.16,     57.726,    35.16,    57.7264,   -84.84,          0,     0.00, 0.00115809,  -134.55
Line.L_BSB_MT_3754,    56.5648,   -24.84,    56.5643,  -144.84,    56.5647,    95.16,          0,     0.00, 0.00115812,    45.46,    56.5648,   155.16,    56.5643,    35.16,    56.5647,   -84.84,          0,     0.00, 0.00115812,  -134.54
Line.L_BSB_MT_3755,    24.1741,   -24.84,     24.174,  -144.85,    24.1741,    95.15,          0,     0.00, 0.000395785,    52.50,    24.1741,   155.16,     24.174,    35.15,    24.1741,   -84.85,          0,     0.00, 0.000395785,  -127.50
Line.L_BSB_MT_3756,    32.3907,   -24.84,    32.3903,  -144.84,    32.3905,    95.16,          0,     0.00, 0.000766853,    41.83,    32.3907,   155.16,    32.3903,    35.16,    32.3905,   -84.84,          0,     0.00, 0.000766853,  -138.17
Line.L_BSB_MT_3757,    32.3907,   -24.84,    32.3903,  -144.84,    32.3905,    95.16,          0,     0.00, 0.000766853,    41.83,    32.3907,   155.16,    32.3903,    35.16,    32.3905,   -84.84,          0,     0.00, 0.000766853,  -138.17
Line.L_BSB_MT_3758,    8.43643,   -24.83,    8.43657,  -144.83,    8.43658,    95.17,          0,     0.00, 0.000365183,   100.43,    8.43643,   155.17,    8.43657,    35.17,    8.43658,   -84.83,          0,     0.00, 0.000365183,   -79.57
Line.L_BSB_MT_3759,    5.53803,   -24.83,    5.53811,  -144.83,    5.53812,    95.17,          0,     0.00, 0.000248299,    82.78,    5.53803,   155.17,    5.53811,    35.17,    5.53812,   -84.83,          0,     0.00, 0.000248299,   -97.22
Line.L_BSB_MT_3760,    17.0609,   -24.85,    17.0606,  -144.85,    17.0609,    95.15,          0,     0.00, 0.000221005,    29.35,    17.0609,   155.15,    17.0606,    35.15,    17.0609,   -84.85,          0,     0.00, 0.000221005,  -150.65
Line.L_BSB_MT_3761,    17.0609,   -24.85,    17.0606,  -144.85,    17.0609,    95.15,          0,     0.00, 0.000221005,    29.35,    17.0609,   155.15,    17.0606,    35.15,    17.0609,   -84.85,          0,     0.00, 0.000221005,  -150.65
Line.L_BSB_MT_3762, 3.25391E-011,  -116.57, 1.45519E-011,   -90.00,          0,     0.00,          0,     0.00, 4.60172E-011,  -108.43, 2.05795E-011,    45.00, 1.45519E-011,    90.00, 2.91038E-011,     0.00,          0,     0.00, 5.24677E-011,    33.69
Line.L_BSB_MT_3763,    0.77087,   155.16,    0.77087,    35.16,    0.77087,   -84.84,          0,     0.00, 1.40634E-007,   121.08,    0.77087,   -24.84,    0.77087,  -144.84,    0.77087,    95.16,          0,     0.00, 1.4057E-007,   -58.88
Line.L_BSB_MT_3764,    0.77087,   155.16,    0.77087,    35.16,    0.77087,   -84.84,          0,     0.00, 1.40502E-007,   121.07,    0.77087,   -24.84,    0.77087,  -144.84,    0.77087,    95.16,          0,     0.00, 1.4045E-007,   -58.90
Line.L_BSB_MT_3765,    0.77087,   155.16,    0.77087,    35.16,    0.77087,   -84.84,          0,     0.00, 1.40537E-007,   121.01,    0.77087,   -24.84,    0.77087,  -144.84,    0.77087,    95.16,          0,     0.00, 1.40527E-007,   -58.97
Line.L_BSB_MT_3770,    0.77087,   155.16,    0.77087,    35.16,    0.77087,   -84.84,          0,     0.00, 1.40469E-007,   121.04,    0.77087,   -24.84,    0.77087,  -144.84,    0.77087,    95.16,          0,     0.00, 1.40517E-007,   -58.95
Line.L_BSB_MT_3771,    0.77087,   155.16,    0.77087,    35.16,    0.77087,   -84.84,          0,     0.00, 1.40497E-007,   121.04,    0.77087,   -24.84,    0.77087,  -144.84,    0.77087,    95.16,          0,     0.00, 1.40447E-007,   -58.94
Line.L_BSB_MT_3772,    0.77087,   155.16,    0.77087,    35.16,    0.77087,   -84.84,          0,     0.00, 1.40473E-007,   121.02,    0.77087,   -24.84,    0.77087,  -144.84,    0.77087,    95.16,          0,     0.00, 1.40459E-007,   -58.95
Line.L_BSB_MT_3773,    3.66185,   155.15,    3.66171,    35.16,    3.66189,   -84.84,          0,     0.00, 7.90562E-005,   -91.36,    3.66185,   -24.85,    3.66171,  -144.84,    3.66189,    95.16,          0,     0.00, 7.90561E-005,    88.64
Line.L_BSB_MT_3774,    3.66185,   155.15,    3.66171,    35.16,    3.66189,   -84.84,          0,     0.00, 7.90562E-005,   -91.36,    3.66185,   -24.85,    3.66171,  -144.84,    3.66189,    95.16,          0,     0.00, 7.90562E-005,    88.64
Line.L_BSB_MT_3437,    17.7754,   -25.14,    17.7754,  -145.14,    17.7754,    94.86,          0,     0.00, 0.000201671,   164.32,    17.7754,   154.86,    17.7754,    34.86,    17.7754,   -85.14,          0,     0.00, 0.000201671,   -15.68
Line.L_BSB_MT_3450,    2.31836,   155.17,    2.31842,    35.17,    2.31837,   -84.83,          0,     0.00, 9.15467E-005,   107.13,    2.31836,   -24.83,    2.31842,  -144.83,    2.31837,    95.17,          0,     0.00, 9.15464E-005,   -72.87
Line.L_BSB_MT_3451,   0.515281,   155.17,   0.515211,    35.17,   0.515205,   -84.84,          0,     0.00, 0.000191769,  -177.88,   0.515281,   -24.83,   0.515211,  -144.83,   0.515205,    95.16,          0,     0.00, 0.000191769,     2.12
Line.L_BSB_MT_3452,   0.515281,   155.17,   0.515211,    35.17,   0.515205,   -84.84,          0,     0.00, 0.000191768,  -177.88,   0.515281,   -24.83,   0.515211,  -144.83,   0.515205,    95.16,          0,     0.00, 0.000191768,     2.12
Line.L_BSB_MT_3453,    1.67468,   155.17,    1.67447,    35.17,    1.67442,   -84.83,          0,     0.00, 0.000280679,   178.27,    1.67468,   -24.83,    1.67447,  -144.83,    1.67442,    95.17,          0,     0.00, 0.000280679,    -1.73
Line.L_BSB_MT_3454, 6.50781E-011,   153.43, 1.04935E-010,    56.31,          0,     0.00,          0,     0.00, 1.16415E-010,    90.00, 1.01863E-010,     0.00, 8.23181E-011,  -135.00,          0,     0.00,          0,     0.00, 7.27596E-011,   -53.13
Line.L_BSB_MT_3455, 3.25391E-011,   116.57, 5.24677E-011,    33.69, 9.20344E-011,  -108.43,          0,     0.00, 2.91038E-011,   -90.00, 5.24677E-011,   -56.31, 2.91038E-011,   -90.00, 4.1159E-011,    45.00,          0,     0.00, 7.27596E-011,   -36.87
Line.L_BSB_MT_3456, 4.36557E-011,    90.00, 7.83645E-011,    68.20, 9.76172E-011,   116.57,          0,     0.00, 2.04246E-010,    94.09, 2.62338E-011,   -56.31, 1.04935E-010,  -123.69, 1.13654E-010,   -50.19,          0,     0.00, 1.98595E-010,   -81.57
Line.L_BSB_MT_3457, 6.35227E-005,    25.15, 6.12952E-005,    49.85, 2.61998E-005,     9.15,          0,     0.00, 0.000145561,    32.41, 6.35226E-005,  -154.85, 6.12951E-005,  -130.15, 2.61999E-005,  -170.85,          0,     0.00, 0.000145561,  -147.59
Line.L_BSB_MT_3458,   0.513802,   155.15,   0.513945,    35.16,   0.513869,   -84.84,          0,     0.00, 0.000172286,    45.43,   0.513802,   -24.85,   0.513945,  -144.84,   0.513869,    95.16,          0,     0.00, 0.000172286,  -134.57
Line.L_BSB_MT_3460,   0.513802,   155.15,   0.513945,    35.16,   0.513869,   -84.84,          0,     0.00, 0.000172287,    45.43,   0.513802,   -24.85,   0.513945,  -144.84,   0.513869,    95.16,          0,     0.00, 0.000172287,  -134.57
Line.L_BSB_MT_3461,    1.79828,   -24.84,    1.79842,  -144.85,    1.79841,    95.15,          0,     0.00, 0.000241676,   119.36,    1.79828,   155.16,    1.79842,    35.15,    1.79841,   -84.85,          0,     0.00, 0.000241676,   -60.64
Line.L_BSB_MT_3462,    1.79828,   -24.84,    1.79842,  -144.85,    1.79841,    95.15,          0,     0.00, 0.000241676,   119.36,    1.79828,   155.16,    1.79842,    35.15,    1.79841,   -84.85,          0,     0.00, 0.000241676,   -60.64
Line.L_BSB_MT_3488,    1.02759,   155.15,    1.02766,    35.15,    1.02767,   -84.85,          0,     0.00, 0.000139229,   -62.10,    1.02759,   -24.85,    1.02766,  -144.85,    1.02767,    95.15,          0,     0.00, 0.000139229,   117.90
Line.L_BSB_MT_3489,    1.02757,   155.15,    1.02757,    35.15,    1.02757,   -84.85,          0,     0.00, 1.90071E-007,   127.50,    1.02757,   -24.85,    1.02757,  -144.85,    1.02757,    95.15,          0,     0.00, 1.90097E-007,   -52.51
Line.L_BSB_MT_3490,   0.513783,   155.15,   0.513783,    35.15,   0.513783,   -84.85,          0,     0.00, 9.5048E-008,   127.54,   0.513783,   -24.85,   0.513783,  -144.85,   0.513783,    95.15,          0,     0.00, 9.49895E-008,   -52.48
Line.L_BSB_MT_3495,    16.3619,   155.15,    16.3617,    35.15,    16.3619,   -84.85,          0,     0.00, 0.000321446,  -148.47,    16.3619,   -24.85,    16.3617,  -144.85,    16.3619,    95.15,          0,     0.00, 0.000321446,    31.53
Line.L_BSB_MT_3500,    1.15915,   -24.83,    1.15916,  -144.83,    1.15921,    95.17,          0,     0.00, 5.21901E-005,    48.15,    1.15915,   155.17,    1.15916,    35.17,    1.15921,   -84.83,          0,     0.00, 5.21903E-005,  -131.85
Line.L_BSB_MT_3504,     2.3184,   -24.83,     2.3184,  -144.83,    2.31845,    95.17,          0,     0.00, 5.21365E-005,    47.93,     2.3184,   155.17,     2.3184,    35.17,    2.31845,   -84.83,          0,     0.00, 5.21365E-005,  -132.07
Line.L_BSB_MT_3507,    16.3619,   155.15,    16.3617,    35.15,    16.3619,   -84.85,          0,     0.00, 0.000321446,  -148.47,    16.3619,   -24.85,    16.3617,  -144.85,    16.3619,    95.15,          0,     0.00, 0.000321446,    31.53
Line.L_BSB_MT_5202,    2.31208,   155.15,    2.31237,    35.15,    2.31227,   -84.85,          0,     0.00, 0.000255025,   -20.16,    2.31208,   -24.85,    2.31237,  -144.85,    2.31227,    95.15,          0,     0.00, 0.000255025,   159.84
Line.L_BSB_MT_5203,    24.1741,   -24.84,     24.174,  -144.85,    24.1741,    95.15,          0,     0.00, 0.000395786,    52.50,    24.1741,   155.16,     24.174,    35.15,    24.1741,   -84.85,          0,     0.00, 0.000395786,  -127.50
Line.L_BSB_MT_5204,    23.4015,   -24.85,    23.4013,  -144.85,    23.4015,    95.15,          0,     0.00, 0.000338654,    46.83,    23.4015,   155.15,    23.4013,    35.15,    23.4015,   -84.85,          0,     0.00, 0.000338653,  -133.17
Line.L_BSB_MT_5205,   0.386044,   155.16,   0.386044,    35.16,   0.386044,   -84.84,          0,     0.00, 6.82934E-008,   123.95,   0.386044,   -24.84,   0.386044,  -144.84,   0.386044,    95.16,          0,     0.00, 6.82976E-008,   -56.02
Line.L_BSB_MT_5216, 5.82077E-011,    90.00, 7.42005E-011,   -11.31, 1.16415E-010,   -90.00,          0,     0.00, 1.02898E-010,   -45.00, 2.91038E-011,     0.00, 3.25391E-011,  -153.43, 1.16415E-010,    90.00,          0,     0.00, 1.01863E-010,    90.00
Line.L_BSB_MT_5222, 1.45519E-010,   126.87, 2.09871E-010,   146.31, 4.16703E-010,    24.78,          0,     0.00, 4.23758E-010,    74.05, 1.84069E-010,   -71.57, 9.20344E-011,   -18.43, 3.40652E-010,  -160.02,          0,     0.00, 3.6467E-010,  -118.61
Line.L_BSB_MT_5232,    8.09336,   155.15,    8.09363,    35.15,    8.09352,   -84.85,          0,     0.00, 0.000298826,   -13.94,    8.09336,   -24.85,    8.09363,  -144.85,    8.09352,    95.15,          0,     0.00, 0.000298826,   166.06
Line.L_BSB_MT_5233,    8.09336,   -24.85,    8.09363,  -144.85,    8.09352,    95.15,          0,     0.00, 0.000298826,   166.06,    8.09336,   155.15,    8.09363,    35.15,    8.09352,   -84.85,          0,     0.00, 0.000298826,   -13.94
Line.L_BSB_MT_5234,     1.1591,   155.17,     1.1591,    35.17,     1.1591,   -84.83,          0,     0.00, 2.09772E-007,   124.15,     1.1591,   -24.83,     1.1591,  -144.83,     1.1591,    95.17,          0,     0.00, 2.09941E-007,   -55.88
Line.L_BSB_MT_5235,    2.44692,   -24.83,    2.44703,  -144.83,     2.4471,    95.17,          0,     0.00, 0.000290146,   115.95,    2.44692,   155.17,    2.44703,    35.17,     2.4471,   -84.83,          0,     0.00, 0.000290146,   -64.05
Line.L_BSB_MT_5236,    2.31836,   155.17,    2.31842,    35.17,    2.31837,   -84.83,          0,     0.00, 9.1547E-005,   107.13,    2.31836,   -24.83,    2.31842,  -144.83,    2.31837,    95.17,          0,     0.00, 9.1547E-005,   -72.87
Line.L_BSB_MT_5249,    58.5046,   -24.84,     58.504,  -144.84,    58.5044,    95.16,          0,     0.00, 0.00117816,    43.42,    58.5046,   155.16,     58.504,    35.16,    58.5044,   -84.84,          0,     0.00, 0.00117816,  -136.58
Line.L_BSB_MT_5250,    57.7266,   -24.84,     57.726,  -144.84,    57.7264,    95.16,          0,     0.00, 0.00115809,    45.45,    57.7266,   155.16,     57.726,    35.16,    57.7264,   -84.84,          0,     0.00, 0.00115809,  -134.55
Line.L_BSB_MT_5251,    57.7266,   -24.84,     57.726,  -144.84,    57.7264,    95.16,          0,     0.00, 0.00115809,    45.45,    57.7266,   155.16,     57.726,    35.16,    57.7264,   -84.84,          0,     0.00, 0.00115809,  -134.55
Line.L_BSB_MT_5252,    32.3907,   -24.84,    32.3903,  -144.84,    32.3905,    95.16,          0,     0.00, 0.000766853,    41.83,    32.3907,   155.16,    32.3903,    35.16,    32.3905,   -84.84,          0,     0.00, 0.000766853,  -138.17
Line.L_BSB_MT_5253,    12.4295,   155.17,    12.4293,    35.17,    12.4294,   -84.83,          0,     0.00, 0.000654147,  -133.15,    12.4295,   -24.83,    12.4293,  -144.83,    12.4294,    95.17,          0,     0.00, 0.000654147,    46.85
Line.L_BSB_MT_5254,    5.53803,   -24.83,    5.53811,  -144.83,    5.53812,    95.17,          0,     0.00, 0.000248298,    82.78,    5.53803,   155.17,    5.53811,    35.17,    5.53812,   -84.83,          0,     0.00, 0.000248298,   -97.22
Line.L_BSB_MT_5255, 5.82077E-011,   -90.00, 7.42005E-011,  -101.31, 1.24332E-010,   -69.44,          0,     0.00, 2.49089E-010,   -83.29, 5.82077E-011,    90.00, 1.2518E-010,   125.54, 5.99991E-011,   104.04,          0,     0.00, 2.35093E-010,   111.80
Line.L_BSB_MT_5256,    0.77087,   155.16,    0.77087,    35.16,    0.77087,   -84.84,          0,     0.00, 1.40359E-007,   121.01,    0.77087,   -24.84,    0.77087,  -144.84,    0.77087,    95.16,          0,     0.00, 1.40319E-007,   -59.00
Line.L_BSB_MT_5259,    6.55331,   155.16,    6.55296,    35.16,    6.55313,   -84.84,          0,     0.00, 0.000163811,  -179.05,    6.55331,   -24.84,    6.55296,  -144.84,    6.55313,    95.16,          0,     0.00, 0.000163811,     0.95
Line.L_BSB_MT_5260,     2.2107,   -24.88,     2.2111,  -144.88,    2.21093,    95.11,          0,     0.00, 0.000208731,   145.43,     2.2107,   155.12,     2.2111,    35.12,    2.21093,   -84.89,          0,     0.00, 0.000208731,   -34.57
Line.L_BSB_MT_5261,    17.0608,   155.15,    17.0607,    35.15,    17.0608,   -84.85,          0,     0.00, 0.000143485,  -143.91,    17.0608,   -24.85,    17.0607,  -144.85,    17.0608,    95.15,          0,     0.00, 0.000143485,    36.09
Line.L_BSB_MT_5262, 7.09878E-005,   170.40, 2.66881E-005,   -60.52, 7.44292E-005,  -151.35,          0,     0.00, 0.000130933,  -158.93, 7.09878E-005,    -9.60, 2.6688E-005,   119.48, 7.44293E-005,    28.65,          0,     0.00, 0.000130933,    21.07
Line.L_BSB_MT_5263,     3.8501,   155.15,       3.85,    35.15,    3.84995,   -84.85,          0,     0.00, 0.000208037,   156.47,     3.8501,   -24.85,       3.85,  -144.85,    3.84995,    95.15,          0,     0.00, 0.000208037,   -23.53
Line.L_BSB_MT_5264,    7.70054,   155.15,    7.70044,    35.15,    7.70039,   -84.85,          0,     0.00, 0.000208619,   156.36,    7.70054,   -24.85,    7.70044,  -144.85,    7.70039,    95.15,          0,     0.00, 0.000208619,   -23.64
Line.L_BSB_MT_5265,    16.3619,   155.15,    16.3617,    35.15,    16.3619,   -84.85,          0,     0.00, 0.000321446,  -148.47,    16.3619,   -24.85,    16.3617,  -144.85,    16.3619,    95.15,          0,     0.00, 0.000321446,    31.53
Line.L_BSB_MT_5266,    16.3619,   155.15,    16.3617,    35.15,    16.3619,   -84.85,          0,     0.00, 0.000321446,  -148.47,    16.3619,   -24.85,    16.3617,  -144.85,    16.3619,    95.15,          0,     0.00, 0.000321446,    31.53
Line.L_BSB_MT_5268,    16.3618,   155.15,    16.3617,    35.15,     16.362,   -84.85,          0,     0.00, 0.000406017,  -140.84,    16.3618,   -24.85,    16.3617,  -144.85,     16.362,    95.15,          0,     0.00, 0.000406017,    39.16
Line.L_BSB_MT_5269,    2.44697,   155.17,    2.44701,    35.17,    2.44704,   -84.83,          0,     0.00, 0.000203881,   -50.01,    2.44697,   -24.83,    2.44701,  -144.83,    2.44704,    95.17,          0,     0.00, 0.000203881,   129.99
Line.L_BSB_MT_5287,   0.515164,   155.18,   0.515142,    35.17,   0.515209,   -84.83,          0,     0.00, 0.000159676,   -93.03,   0.515164,   -24.82,   0.515142,  -144.83,   0.515209,    95.17,          0,     0.00, 0.000159676,    86.97
Line.L_BSB_MT_5288,     2.3184,   -24.83,     2.3184,  -144.83,    2.31845,    95.17,          0,     0.00, 5.21367E-005,    47.93,     2.3184,   155.17,     2.3184,    35.17,    2.31845,   -84.83,          0,     0.00, 5.21367E-005,  -132.07
Line.L_BSB_MT_5289,    17.0608,   155.15,    17.0607,    35.15,    17.0608,   -84.85,          0,     0.00, 0.000143485,  -143.91,    17.0608,   -24.85,    17.0607,  -144.85,    17.0608,    95.15,          0,     0.00, 0.000143485,    36.09
Line.L_BSB_MT_5290,    12.6207,   155.15,    12.6205,    35.15,    12.6207,   -84.85,          0,     0.00, 0.00014353,  -143.60,    12.6207,   -24.85,    12.6205,  -144.85,    12.6207,    95.15,          0,     0.00, 0.00014353,    36.40
Line.L_BSB_MT_5291,    8.76407,   155.15,    8.76394,    35.15,    8.76407,   -84.85,          0,     0.00, 0.000143585,  -143.32,    8.76407,   -24.85,    8.76394,  -144.85,    8.76407,    95.15,          0,     0.00, 0.000143585,    36.68
Line.L_BSB_MT_5293,    202.405,   154.73,    202.405,    34.73,    202.406,   -85.27,          0,     0.00, 0.00148544,   -44.23,    202.405,   -25.27,    202.405,  -145.27,    202.406,    94.73,          0,     0.00, 0.00148544,   135.77
Line.L_BSB_MT_5294,    202.405,   154.73,    202.405,    34.73,    202.406,   -85.27,          0,     0.00, 0.00148544,   -44.23,    202.405,   -25.27,    202.405,  -145.27,    202.406,    94.73,          0,     0.00, 0.00148544,   135.77
Line.L_BSB_MT_5295,    260.908,   -25.17,    260.908,  -145.17,    260.909,    94.83,          0,     0.00,  0.0019297,    96.49,    260.908,   154.83,    260.908,    34.83,    260.909,   -85.17,          0,     0.00,  0.0019297,   -83.51
Line.L_BSB_MT_5308,    8.66129,   -24.85,    8.66135,  -144.85,    8.66144,    95.15,          0,     0.00, 0.000214115,    85.46,    8.66129,   155.15,    8.66135,    35.15,    8.66144,   -84.85,          0,     0.00, 0.000214115,   -94.54
Line.L_BSB_MT_5309,    2.88688,   -24.85,     2.8869,  -144.85,    2.88696,    95.15,          0,     0.00, 0.000183479,    60.84,    2.88688,   155.15,     2.8869,    35.15,    2.88696,   -84.85,          0,     0.00, 0.000183479,  -119.16
Line.L_BSB_MT_7582,    19.9926,   155.21,    19.9926,    35.21,    19.9927,   -84.79,          0,     0.00, 0.000205059,   -69.08,    19.9926,   -24.79,    19.9926,  -144.79,    19.9927,    95.21,          0,     0.00, 0.000205059,   110.92
Line.L_BSB_MT_7602,    3.65687,   -25.10,    3.65687,  -145.10,    3.65687,    94.90,          0,     0.00, 1.01109E-006,   -28.20,    3.65687,   154.90,    3.65687,    34.90,    3.65687,   -85.10,          0,     0.00, 1.01116E-006,   151.80
Line.L_BSB_MT_7640,    1.02759,   -24.85,    1.02766,  -144.85,    1.02767,    95.15,          0,     0.00, 0.000139229,   117.90,    1.02759,   155.15,    1.02766,    35.15,    1.02767,   -84.85,          0,     0.00, 0.000139229,   -62.10
Line.L_BSB_MT_7647,    32.3907,   155.16,    32.3903,    35.16,    32.3905,   -84.84,          0,     0.00, 0.000766853,  -138.17,    32.3907,   -24.84,    32.3903,  -144.84,    32.3905,    95.16,          0,     0.00, 0.000766853,    41.83
Line.L_BSB_MT_7648,   0.515164,   155.18,   0.515142,    35.17,   0.515209,   -84.83,          0,     0.00, 0.000159676,   -93.03,   0.515164,   -24.82,   0.515142,  -144.83,   0.515209,    95.17,          0,     0.00, 0.000159676,    86.97
Line.L_BSB_MT_3614,    23.7876,   -24.85,    23.7874,  -144.85,    23.7876,    95.15,          0,     0.00, 0.000338639,    46.82,    23.7876,   155.15,    23.7874,    35.15,    23.7876,   -84.85,          0,     0.00, 0.000338638,  -133.18
Line.L_BSB_MT_3615,    23.7876,   -24.85,    23.7874,  -144.85,    23.7876,    95.15,          0,     0.00, 0.000338639,    46.82,    23.7876,   155.15,    23.7874,    35.15,    23.7876,   -84.85,          0,     0.00, 0.000338639,  -133.18
Line.L_BSB_MT_3616,    23.7876,   -24.85,    23.7874,  -144.85,    23.7876,    95.15,          0,     0.00, 0.000338639,    46.82,    23.7876,   155.15,    23.7874,    35.15,    23.7876,   -84.85,          0,     0.00, 0.000338639,  -133.18
Line.L_BSB_MT_3617,    23.4015,   -24.85,    23.4013,  -144.85,    23.4015,    95.15,          0,     0.00, 0.000338654,    46.83,    23.4015,   155.15,    23.4013,    35.15,    23.4015,   -84.85,          0,     0.00, 0.000338654,  -133.17
Line.L_BSB_MT_3618,    23.4015,   -24.85,    23.4013,  -144.85,    23.4015,    95.15,          0,     0.00, 0.000338654,    46.83,    23.4015,   155.15,    23.4013,    35.15,    23.4015,   -84.85,          0,     0.00, 0.000338653,  -133.17
Line.L_BSB_MT_3619,    23.4015,   -24.85,    23.4013,  -144.85,    23.4015,    95.15,          0,     0.00, 0.000338654,    46.83,    23.4015,   155.15,    23.4013,    35.15,    23.4015,   -84.85,          0,     0.00, 0.000338653,  -133.17
Line.L_BSB_MT_3620,    1.15699,   -24.84,    1.15692,  -144.84,    1.15704,    95.16,          0,     0.00, 0.000164494,    61.10,    1.15699,   155.16,    1.15692,    35.16,    1.15704,   -84.84,          0,     0.00, 0.000164494,  -118.90
Line.L_BSB_MT_3637, 5.82077E-011,   180.00, 1.30156E-010,    63.43, 1.95234E-010,   -63.43,          0,     0.00, 1.04935E-010,   -33.69, 4.1159E-011,   -45.00, 1.19998E-010,   -75.96, 1.56729E-010,   158.20,          0,     0.00, 1.23477E-010,  -135.00
Line.L_BSB_MT_3638, 1.23477E-010,   -45.00, 9.76172E-011,  -153.43, 5.82077E-011,   180.00,          0,     0.00, 1.4332E-010,  -113.96, 6.50781E-011,   153.43, 1.24332E-010,    20.56, 8.23181E-011,   -45.00,          0,     0.00, 1.17321E-010,     7.13
Line.L_BSB_MT_3639,    5.20255,   -24.85,    5.20282,  -144.85,    5.20271,    95.15,          0,     0.00, 0.000299227,   165.99,    5.20255,   155.15,    5.20282,    35.15,    5.20271,   -84.85,          0,     0.00, 0.000299227,   -14.01
Line.L_BSB_MT_3644,    58.5046,   -24.84,     58.504,  -144.84,    58.5044,    95.16,          0,     0.00, 0.00122191,    46.15,    58.5046,   155.16,     58.504,    35.16,    58.5044,   -84.84,          0,     0.00, 0.00122191,  -133.85
Line.L_BSB_MT_3775,    6.55331,   155.16,    6.55296,    35.16,    6.55313,   -84.84,          0,     0.00, 0.000163811,  -179.05,    6.55331,   -24.84,    6.55296,  -144.84,    6.55313,    95.16,          0,     0.00, 0.000163811,     0.95
Line.L_BSB_MT_3776,    6.55331,   155.16,    6.55296,    35.16,    6.55313,   -84.84,          0,     0.00, 0.000163811,  -179.05,    6.55331,   -24.84,    6.55296,  -144.84,    6.55313,    95.16,          0,     0.00, 0.00016381,     0.95
Line.L_BSB_MT_3828,    2.31208,   155.15,    2.31237,    35.15,    2.31227,   -84.85,          0,     0.00, 0.000255025,   -20.16,    2.31208,   -24.85,    2.31237,  -144.85,    2.31227,    95.15,          0,     0.00, 0.000255025,   159.84
Line.L_BSB_MT_3847, 6.50781E-011,   -63.43, 2.11879E-010,   -74.05, 1.16415E-010,    90.00,          0,     0.00, 1.69703E-010,   -59.04, 8.73115E-011,    90.00, 2.11879E-010,   105.95, 1.77032E-010,   -80.54,          0,     0.00, 1.19998E-010,   104.04
Line.L_BSB_MT_3848, 1.45519E-011,   -90.00, 5.24677E-011,  -123.69, 5.99991E-011,   -75.96,          0,     0.00, 1.17321E-010,   -97.13, 1.45519E-011,    90.00, 9.31777E-011,    38.66, 5.24677E-011,  -146.31,          0,     0.00, 5.24677E-011,    56.31
Line.L_BSB_MT_3849,    1.15915,   -24.83,    1.15916,  -144.83,    1.15921,    95.17,          0,     0.00, 5.21906E-005,    48.15,    1.15915,   155.17,    1.15916,    35.17,    1.15921,   -84.83,          0,     0.00, 5.21905E-005,  -131.85
Line.L_BSB_MT_3853,    14.1643,   155.15,    14.1641,    35.15,    14.1643,   -84.85,          0,     0.00, 0.000143512,  -143.71,    14.1643,   -24.85,    14.1641,  -144.85,    14.1643,    95.15,          0,     0.00, 0.000143512,    36.29
Line.L_BSB_MT_3854,    14.1643,   155.15,    14.1641,    35.15,    14.1643,   -84.85,          0,     0.00, 0.000143512,  -143.71,    14.1643,   -24.85,    14.1641,  -144.85,    14.1643,    95.15,          0,     0.00, 0.000143512,    36.29
Line.L_BSB_MT_3855,    13.3923,   155.15,    13.3922,    35.15,    13.3923,   -84.85,          0,     0.00, 0.00014352,  -143.65,    13.3923,   -24.85,    13.3922,  -144.85,    13.3923,    95.15,          0,     0.00, 0.00014352,    36.35
Line.L_BSB_MT_3856,    13.3923,   155.15,    13.3922,    35.15,    13.3923,   -84.85,          0,     0.00, 0.00014352,  -143.65,    13.3923,   -24.85,    13.3922,  -144.85,    13.3923,    95.15,          0,     0.00, 0.00014352,    36.35
Line.L_BSB_MT_3857,    13.3923,   155.15,    13.3922,    35.15,    13.3923,   -84.85,          0,     0.00, 0.00014352,  -143.65,    13.3923,   -24.85,    13.3922,  -144.85,    13.3923,    95.15,          0,     0.00, 0.00014352,    36.35
Line.L_BSB_MT_3858,    12.6207,   155.15,    12.6205,    35.15,    12.6207,   -84.85,          0,     0.00, 0.00014353,  -143.60,    12.6207,   -24.85,    12.6205,  -144.85,    12.6207,    95.15,          0,     0.00, 0.00014353,    36.40
Line.L_BSB_MT_3859,    12.6207,   155.15,    12.6205,    35.15,    12.6207,   -84.85,          0,     0.00, 0.00014353,  -143.60,    12.6207,   -24.85,    12.6205,  -144.85,    12.6207,    95.15,          0,     0.00, 0.00014353,    36.40
Line.L_BSB_MT_3860,    8.76407,   155.15,    8.76394,    35.15,    8.76407,   -84.85,          0,     0.00, 0.000143585,  -143.32,    8.76407,   -24.85,    8.76394,  -144.85,    8.76407,    95.15,          0,     0.00, 0.000143585,    36.68
Line.L_BSB_MT_3861,    8.76407,   155.15,    8.76394,    35.15,    8.76407,   -84.85,          0,     0.00, 0.000143585,  -143.32,    8.76407,   -24.85,    8.76394,  -144.85,    8.76407,    95.15,          0,     0.00, 0.000143585,    36.68
Line.L_BSB_MT_3862,    8.76403,   155.15,    8.76399,    35.15,    8.76413,   -84.85,          0,     0.00, 0.000186529,   -90.60,    8.76403,   -24.85,    8.76399,  -144.85,    8.76413,    95.15,          0,     0.00, 0.000186529,    89.40
Line.L_BSB_MT_3865,    202.405,   154.73,    202.405,    34.73,    202.406,   -85.27,          0,     0.00, 0.00148544,   -44.23,    202.405,   -25.27,    202.405,  -145.27,    202.406,    94.73,          0,     0.00, 0.00148544,   135.77
Line.L_BSB_MT_3866,    202.405,   154.73,    202.405,    34.73,    202.406,   -85.27,          0,     0.00, 0.00148544,   -44.23,    202.405,   -25.27,    202.405,  -145.27,    202.406,    94.73,          0,     0.00, 0.00148544,   135.77
Line.L_BSB_MT_3867,    202.405,   154.73,    202.405,    34.73,    202.406,   -85.27,          0,     0.00, 0.00148544,   -44.23,    202.405,   -25.27,    202.405,  -145.27,    202.406,    94.73,          0,     0.00, 0.00148544,   135.77
Line.L_BSB_MT_3868,    202.405,   154.73,    202.405,    34.73,    202.406,   -85.27,          0,     0.00, 0.00148544,   -44.23,    202.405,   -25.27,    202.405,  -145.27,    202.406,    94.73,          0,     0.00, 0.00148544,   135.77
Line.L_BSB_MT_3869,    202.405,   154.73,    202.405,    34.73,    202.406,   -85.27,          0,     0.00, 0.00148544,   -44.23,    202.405,   -25.27,    202.405,  -145.27,    202.406,    94.73,          0,     0.00, 0.00148544,   135.77
Line.L_BSB_MT_3870,    260.908,   -25.17,    260.908,  -145.17,    260.909,    94.83,          0,     0.00,  0.0019297,    96.49,    260.908,   154.83,    260.908,    34.83,    260.909,   -85.17,          0,     0.00,  0.0019297,   -83.51
Line.L_BSB_MT_3871,    260.908,   -25.17,    260.908,  -145.17,    260.909,    94.83,          0,     0.00,  0.0019297,    96.49,    260.908,   154.83,    260.908,    34.83,    260.909,   -85.17,          0,     0.00,  0.0019297,   -83.51
Line.L_BSB_MT_3872,    260.908,   -25.17,    260.908,  -145.17,    260.909,    94.83,          0,     0.00,  0.0019297,    96.49,    260.908,   154.83,    260.908,    34.83,    260.909,   -85.17,          0,     0.00,  0.0019297,   -83.51
Line.L_BSB_MT_3873,    260.908,   -25.17,    260.908,  -145.17,    260.909,    94.83,          0,     0.00,  0.0019297,    96.49,    260.908,   154.83,    260.908,    34.83,    260.909,   -85.17,          0,     0.00,  0.0019297,   -83.51
Line.L_BSB_MT_3889,    1.15915,   -24.83,    1.15916,  -144.83,    1.15921,    95.17,          0,     0.00, 5.21903E-005,    48.15,    1.15915,   155.17,    1.15916,    35.17,    1.15921,   -84.83,          0,     0.00, 5.21903E-005,  -131.85
Line.L_BSB_MT_5310,    1.15915,   -24.83,    1.15916,  -144.83,    1.15921,    95.17,          0,     0.00, 5.21903E-005,    48.15,    1.15915,   155.17,    1.15916,    35.17,    1.15921,   -84.83,          0,     0.00, 5.21902E-005,  -131.85
Line.L_BSB_MT_5330, 1.62695E-011,    26.57, 2.18279E-011,   -90.00, 2.91038E-011,    90.00,          0,     0.00, 2.05795E-011,    45.00, 1.45519E-011,     0.00, 3.25391E-011,   153.43, 2.91038E-011,    90.00,          0,     0.00, 4.60172E-011,   108.43
Line.L_BSB_MT_5337,   0.725409,   -25.14,   0.725409,  -145.14,   0.725409,    94.86,          0,     0.00, 2.15665E-007,   -23.38,   0.725409,   154.86,   0.725409,    34.86,   0.725409,   -85.14,          0,     0.00, 2.16055E-007,   156.62
Line.L_BSB_MT_7811,    3.66179,   -24.84,    3.66179,  -144.84,    3.66179,    95.16,          0,     0.00, 6.6758E-007,   -58.96,    3.66179,   155.16,    3.66179,    35.16,    3.66179,   -84.84,          0,     0.00, 6.67592E-007,   121.04
Line.L_BSB_MT_7813,    13.3923,   155.15,    13.3922,    35.15,    13.3923,   -84.85,          0,     0.00, 0.00014352,  -143.65,    13.3923,   -24.85,    13.3922,  -144.85,    13.3923,    95.15,          0,     0.00, 0.00014352,    36.35
Line.L_BSB_MT_2783, 3.25391E-011,    63.43, 4.24258E-011,    30.96, 6.50781E-011,   -26.57,          0,     0.00, 1.11301E-010,    11.31, 1.62695E-011,  -153.43, 2.62338E-011,  -146.31, 4.1159E-011,   135.00,          0,     0.00, 6.58866E-011,   173.66
Line.L_BSB_MT_9079,    1.83546,   -25.08,    1.83543,  -145.08,    1.83546,    94.92,          0,     0.00, 8.25275E-005,    -7.79,    1.83546,   154.92,    1.83543,    34.92,    1.83546,   -85.08,          0,     0.00, 8.25275E-005,   172.21
Line.L_BSB_MT_9080,    65.7832,   -25.13,    65.7834,  -145.13,    65.7834,    94.87,          0,     0.00, 0.000545731,   160.84,    65.7832,   154.87,    65.7834,    34.87,    65.7834,   -85.13,          0,     0.00, 0.000545731,   -19.16
Line.L_BSB_MT_9081,    14.1643,   155.15,    14.1641,    35.15,    14.1643,   -84.85,          0,     0.00, 0.000143512,  -143.71,    14.1643,   -24.85,    14.1641,  -144.85,    14.1643,    95.15,          0,     0.00, 0.000143512,    36.29
Line.L_BSB_MT_9082,    3.66185,   155.15,    3.66171,    35.16,    3.66189,   -84.84,          0,     0.00, 7.90562E-005,   -91.36,    3.66185,   -24.85,    3.66171,  -144.84,    3.66189,    95.16,          0,     0.00, 7.90562E-005,    88.64
Line.L_BSB_MT_9083,    0.77087,   155.16,    0.77087,    35.16,    0.77087,   -84.84,          0,     0.00, 1.40447E-007,   121.06,    0.77087,   -24.84,    0.77087,  -144.84,    0.77087,    95.16,          0,     0.00, 1.40345E-007,   -58.93
Line.L_BSB_MT_3925,    8.66129,   -24.85,    8.66135,  -144.85,    8.66144,    95.15,          0,     0.00, 0.000214115,    85.46,    8.66129,   155.15,    8.66135,    35.15,    8.66144,   -84.85,          0,     0.00, 0.000214115,   -94.54
Line.L_BSB_MT_3926,    8.66129,   -24.85,    8.66135,  -144.85,    8.66144,    95.15,          0,     0.00, 0.000214115,    85.46,    8.66129,   155.15,    8.66135,    35.15,    8.66144,   -84.85,          0,     0.00, 0.000214115,   -94.54
Line.L_BSB_MT_3927,    8.66129,   -24.85,    8.66135,  -144.85,    8.66144,    95.15,          0,     0.00, 0.000214115,    85.46,    8.66129,   155.15,    8.66135,    35.15,    8.66144,   -84.85,          0,     0.00, 0.000214115,   -94.54
Line.L_BSB_MT_3928,    5.77396,   -24.85,    5.77398,  -144.85,    5.77404,    95.15,          0,     0.00,  0.0001832,    60.69,    5.77396,   155.15,    5.77398,    35.15,    5.77404,   -84.85,          0,     0.00,  0.0001832,  -119.31
Line.L_BSB_MT_3929,    2.88688,   -24.85,     2.8869,  -144.85,    2.88696,    95.15,          0,     0.00, 0.000183479,    60.84,    2.88688,   155.15,     2.8869,    35.15,    2.88696,   -84.85,          0,     0.00, 0.000183479,  -119.16
Line.L_BSB_MT_3930,    2.88688,   155.15,     2.8869,    35.15,    2.88696,   -84.85,          0,     0.00, 0.000183479,  -119.16,    2.88688,   -24.85,     2.8869,  -144.85,    2.88696,    95.15,          0,     0.00, 0.000183479,    60.84
Line.L_BSB_MT_3932, 6.50781E-011,   153.43, 4.36557E-011,    90.00, 3.25391E-011,    63.43,          0,     0.00, 1.10824E-010,   113.20, 1.02898E-010,   -45.00, 5.24677E-011,  -146.31, 5.99991E-011,   -75.96,          0,     0.00, 1.65917E-010,   -74.74
Line.L_BSB_MT_3933,    3.99304,   155.17,    3.99289,    35.17,    3.99279,   -84.83,          0,     0.00, 0.000322139,   162.67,    3.99304,   -24.83,    3.99289,  -144.83,    3.99279,    95.17,          0,     0.00, 0.000322139,   -17.33
Line.L_BSB_MT_3940,    16.3619,   155.15,    16.3617,    35.15,    16.3619,   -84.85,          0,     0.00, 0.000321446,  -148.47,    16.3619,   -24.85,    16.3617,  -144.85,    16.3619,    95.15,          0,     0.00, 0.000321446,    31.53
Line.L_BSB_MT_7868,    2.74288,   -25.10,    2.74288,  -145.10,    2.74288,    94.90,          0,     0.00, 7.58026E-007,   -28.23,    2.74288,   154.90,    2.74288,    34.90,    2.74288,   -85.10,          0,     0.00, 7.5805E-007,   151.77
Line.L_BSB_MT_5539,    41.7944,   154.75,    41.7943,    34.75,    41.7944,   -85.25,          0,     0.00, 3.78559E-005,    33.40,    41.7944,   -25.25,    41.7943,  -145.25,    41.7944,    94.75,          0,     0.00, 3.78558E-005,  -146.60
Line.L_BSB_MT_5540,    2.53885,   -25.14,    2.53892,  -145.14,    2.53894,    94.86,          0,     0.00, 0.000120952,   144.32,    2.53885,   154.86,    2.53892,    34.86,    2.53894,   -85.14,          0,     0.00, 0.000120952,   -35.68
Line.L_BSB_MT_5541,    1.83576,   -25.08,    1.83576,  -145.08,    1.83576,    94.92,          0,     0.00, 4.96005E-007,   -27.77,    1.83576,   154.92,    1.83576,    34.92,    1.83576,   -85.08,          0,     0.00, 4.95886E-007,   152.32
Line.L_BSB_MT_5542,    28.9698,   154.68,    28.9697,    34.68,      28.97,   -85.32,          0,     0.00, 0.000282974,   -75.51,    28.9698,   -25.32,    28.9697,  -145.32,      28.97,    94.68,          0,     0.00, 0.000282974,   104.49
Line.L_BSB_MT_5543,    15.4406,   154.49,    15.4407,    34.49,    15.4408,   -85.51,          0,     0.00, 0.00015755,   -50.35,    15.4406,   -25.51,    15.4407,  -145.51,    15.4408,    94.49,          0,     0.00, 0.00015755,   129.65
Line.L_BSB_MT_5544,    17.7754,   -25.14,    17.7754,  -145.14,    17.7754,    94.86,          0,     0.00, 0.000201671,   164.32,    17.7754,   154.86,    17.7754,    34.86,    17.7754,   -85.14,          0,     0.00, 0.000201671,   -15.68
Line.L_BSB_MT_5547,    202.405,   154.73,    202.405,    34.73,    202.406,   -85.27,          0,     0.00, 0.00148544,   -44.23,    202.405,   -25.27,    202.405,  -145.27,    202.406,    94.73,          0,     0.00, 0.00148544,   135.77
Line.L_BSB_MT_5560,    5.48714,   -25.09,    5.48714,  -145.09,    5.48714,    94.91,          0,     0.00, 1.5155E-006,   -28.54,    5.48714,   154.91,    5.48714,    34.91,    5.48714,   -85.09,          0,     0.00, 1.51504E-006,   151.46
Line.L_BSB_MT_2017,    1.83553,   154.92,    1.83554,    34.92,    1.83549,   -85.08,          0,     0.00, 1.97497E-005,   128.41,    1.83553,   -25.08,    1.83554,  -145.08,    1.83549,    94.92,          0,     0.00, 1.97496E-005,   -51.59
Line.L_BSB_MT_2892, 2.1633E-010,   132.27, 3.25391E-011,  -116.57, 2.34643E-010,    29.74,          0,     0.00, 2.51205E-010,    79.99, 2.00716E-010,   -43.53, 8.85158E-011,     9.46, 2.34643E-010,  -150.26,          0,     0.00, 2.41864E-010,   -83.09
Line.L_BSB_MT_2893, 1.93737E-010,   145.71, 9.20344E-011,   161.57, 2.74565E-010,    57.99,          0,     0.00, 3.84801E-010,   105.35, 2.08352E-010,   -24.78, 8.73115E-011,     0.00, 2.27774E-010,  -116.57,          0,     0.00, 3.39406E-010,   -59.04
Line.L_BSB_MT_2894, 1.81899E-010,   143.13, 4.36557E-011,   180.00, 2.27308E-010,    50.19,          0,     0.00, 2.87101E-010,    98.75, 1.86355E-010,   -38.66, 2.91038E-011,    90.00, 1.95776E-010,  -131.99,          0,     0.00, 2.33285E-010,   -86.42
Line.L_BSB_MT_2895, 2.02162E-010,   149.74, 6.50781E-011,  -116.57, 1.84069E-010,    71.57,          0,     0.00, 2.62338E-010,   123.69, 1.78372E-010,   -11.77, 8.23181E-011,    45.00, 2.21648E-010,  -113.20,          0,     0.00, 2.32944E-010,   -51.34
Line.L_BSB_MT_2896, 8.48515E-011,   149.04, 1.64153E-010,   167.20, 1.30156E-010,    26.57,          0,     0.00, 1.80731E-010,   130.10, 1.01081E-010,   -30.26, 1.17321E-010,     7.13, 7.83645E-011,  -158.20,          0,     0.00, 1.46426E-010,   -26.57
Line.L_BSB_MT_6637,    260.908,   -25.17,    260.908,  -145.17,    260.909,    94.83,          0,     0.00,  0.0019297,    96.49,    260.908,   154.83,    260.908,    34.83,    260.909,   -85.17,          0,     0.00,  0.0019297,   -83.51
Line.L_BSB_MT_6639, 4.36557E-011,   -90.00, 5.24677E-011,   -56.31, 1.17321E-010,   -29.74,          0,     0.00, 1.95776E-010,   -48.01, 2.91038E-011,   180.00, 1.62695E-010,   153.43, 8.23181E-011,   135.00,          0,     0.00, 2.67138E-010,   150.64
Line.L_BSB_MT_2112,   0.149573,   108.40,   0.149516,   -11.57,   0.149526,  -131.62,          0,     0.00, 0.000157814,   102.02,   0.149573,   -71.60,   0.149516,   168.43,   0.149526,    48.38,          0,     0.00, 0.000157814,   -77.98
Line.L_BSB_MT_2113,   0.149573,   108.40,   0.149516,   -11.57,   0.149526,  -131.62,          0,     0.00, 0.000157814,   102.02,   0.149573,   -71.60,   0.149516,   168.43,   0.149526,    48.38,          0,     0.00, 0.000157814,   -77.98
Line.L_BSB_MT_2114,    1.72629,   -21.50,    1.72622,  -141.50,    1.72626,    98.50,          0,     0.00, 4.03805E-005,  -179.63,    1.72629,   158.50,    1.72622,    38.50,    1.72626,   -81.50,          0,     0.00, 4.03806E-005,     0.37
Line.L_BSB_MT_2115,    1.72629,   -21.50,    1.72622,  -141.50,    1.72626,    98.50,          0,     0.00, 4.03807E-005,  -179.63,    1.72629,   158.50,    1.72622,    38.50,    1.72626,   -81.50,          0,     0.00, 4.03807E-005,     0.37
Line.L_BSB_MT_2116,    1.72629,   -21.50,    1.72622,  -141.50,    1.72626,    98.50,          0,     0.00, 4.03809E-005,  -179.63,    1.72629,   158.50,    1.72622,    38.50,    1.72626,   -81.50,          0,     0.00, 4.03809E-005,     0.37
Line.L_BSB_MT_2117,    1.72629,   -21.50,    1.72622,  -141.50,    1.72626,    98.50,          0,     0.00, 4.03806E-005,  -179.63,    1.72629,   158.50,    1.72622,    38.50,    1.72626,   -81.50,          0,     0.00, 4.03806E-005,     0.37
Line.L_BSB_MT_2118,     5.5067,   -25.08,    5.50676,  -145.08,    5.50671,    94.92,          0,     0.00, 2.49917E-005,    77.42,     5.5067,   154.92,    5.50676,    34.92,    5.50671,   -85.08,          0,     0.00, 2.49917E-005,  -102.58
Line.L_BSB_MT_2119,    3.67094,   -25.08,    3.67105,  -145.08,    3.67099,    94.92,          0,     0.00, 7.7796E-005,  -156.58,    3.67094,   154.92,    3.67105,    34.92,    3.67099,   -85.08,          0,     0.00, 7.7796E-005,    23.42
...
Line.L_1431047023, 4.42579E-011,    -9.46, 4.1159E-011,    45.00, 2.91038E-011,   -90.00,          0,     0.00, 7.31225E-011,    -5.71, 3.25391E-011,   153.43, 1.62695E-011,   153.43, 5.82077E-011,    90.00,          0,     0.00, 9.11675E-011,   118.61
Line.L_BSB_MT_3777,    14.1511,   155.15,    14.1506,    35.15,     14.151,   -84.85,          0,     0.00, 0.000505865,  -164.17,    14.1511,   -24.85,    14.1506,  -144.85,     14.151,    95.15,          0,     0.00, 0.000505865,    15.83
Line.L_BSB_MT_3778,    17.0608,   155.15,    17.0607,    35.15,    17.0608,   -84.85,          0,     0.00, 0.000143485,  -143.91,    17.0608,   -24.85,    17.0607,  -144.85,    17.0608,    95.15,          0,     0.00, 0.000143485,    36.09
Line.L_BSB_MT_3779,    17.0608,   -24.85,    17.0607,  -144.85,    17.0608,    95.15,          0,     0.00, 0.000143485,    36.09,    17.0608,   155.15,    17.0607,    35.15,    17.0608,   -84.85,          0,     0.00, 0.000143485,  -143.91
Line.L_BSB_MT_3780, 4.36557E-011,     0.00, 1.45519E-011,   -90.00, 5.82077E-011,   -90.00,          0,     0.00, 8.48515E-011,   -59.04, 2.05795E-011,   135.00, 2.91038E-011,     0.00, 5.99991E-011,   104.04,          0,     0.00, 7.27596E-011,    90.00
Line.L_BSB_MT_3781, 7.09876E-005,   170.40, 2.66879E-005,   -60.52, 7.44291E-005,  -151.35,          0,     0.00, 0.000130933,  -158.93, 7.09876E-005,    -9.60, 2.6688E-005,   119.48, 7.44291E-005,    28.65,          0,     0.00, 0.000130933,    21.07
Line.L_BSB_MT_3782,    16.3619,   155.15,    16.3617,    35.15,    16.3619,   -84.85,          0,     0.00, 0.000321446,  -148.47,    16.3619,   -24.85,    16.3617,  -144.85,    16.3619,    95.15,          0,     0.00, 0.000321446,    31.53
Line.L_BSB_MT_3783,    16.3619,   155.15,    16.3617,    35.15,    16.3619,   -84.85,          0,     0.00, 0.000321446,  -148.47,    16.3619,   -24.85,    16.3617,  -144.85,    16.3619,    95.15,          0,     0.00, 0.000321446,    31.53
Line.L_BSB_MT_3786,    17.0608,   155.15,    17.0607,    35.15,    17.0608,   -84.85,          0,     0.00, 0.000143485,  -143.91,    17.0608,   -24.85,    17.0607,  -144.85,    17.0608,    95.15,          0,     0.00, 0.000143485,    36.09
Line.L_BSB_MT_3787,    17.0608,   155.15,    17.0607,    35.15,    17.0608,   -84.85,          0,     0.00, 0.000143485,  -143.91,    17.0608,   -24.85,    17.0607,  -144.85,    17.0608,    95.15,          0,     0.00, 0.000143485,    36.09
Line.L_BSB_MT_3788,    2.44697,   155.17,    2.44701,    35.17,    2.44704,   -84.83,          0,     0.00, 0.000203881,   -50.01,    2.44697,   -24.83,    2.44701,  -144.83,    2.44704,    95.17,          0,     0.00, 0.000203881,   129.99
Line.L_BSB_MT_3789,   0.515164,   155.18,   0.515142,    35.17,   0.515209,   -84.83,          0,     0.00, 0.000159676,   -93.03,   0.515164,   -24.82,   0.515142,  -144.83,   0.515209,    95.17,          0,     0.00, 0.000159676,    86.97
Line.L_BSB_MT_3790,   0.515164,   155.18,   0.515142,    35.17,   0.515209,   -84.83,          0,     0.00, 0.000159676,   -93.03,   0.515164,   -24.82,   0.515142,  -144.83,   0.515209,    95.17,          0,     0.00, 0.000159676,    86.97
Line.L_BSB_MT_7287,    73.9991,   -25.13,    73.9992,  -145.13,    73.9994,    94.87,          0,     0.00, 0.000705081,   145.36,    73.9991,   154.87,    73.9992,    34.87,    73.9994,   -85.13,          0,     0.00, 0.000705081,   -34.64
Line.L_BSB_MT_5075, 1.71719E-010,   126.38, 1.74623E-010,   180.00, 3.55258E-010,    34.99,          0,     0.00, 3.42279E-010,    87.56, 2.01768E-010,   -64.36, 1.60731E-010,     5.19, 3.43438E-010,  -143.62,          0,     0.00, 3.72213E-010,   -94.48
Line.L_BSB_MT_5076, 1.31773E-010,   173.66, 1.60731E-010,   174.81, 1.97927E-010,    36.03,          0,     0.00, 1.95776E-010,   131.99, 1.60071E-010,     0.00, 1.45701E-010,    -2.86, 1.75228E-010,  -138.37,          0,     0.00, 2.13992E-010,   -35.31
Line.L_BSB_MT_5077, 2.05795E-011,    45.00, 3.63798E-011,    90.00, 8.99986E-011,    75.96,          0,     0.00, 1.4295E-010,    75.26, 2.05795E-011,   -45.00,          0,     0.00, 1.45519E-011,     0.00,          0,     0.00, 3.25391E-011,   -26.57
Line.L_BSB_MT_8807,     3.8501,   155.15,       3.85,    35.15,    3.84995,   -84.85,          0,     0.00, 0.000208036,   156.47,     3.8501,   -24.85,       3.85,  -144.85,    3.84995,    95.15,          0,     0.00, 0.000208036,   -23.53
Line.L_BSB_MT_8808,    16.3619,   155.15,    16.3617,    35.15,    16.3619,   -84.85,          0,     0.00, 0.000321447,  -148.47,    16.3619,   -24.85,    16.3617,  -144.85,    16.3619,    95.15,          0,     0.00, 0.000321446,    31.53
Line.L_BSB_MT_8809,    5.53803,   -24.83,    5.53811,  -144.83,    5.53812,    95.17,          0,     0.00, 0.000248299,    82.78,    5.53803,   155.17,    5.53811,    35.17,    5.53812,   -84.83,          0,     0.00, 0.000248299,   -97.22
Line.L_BSB_MT_6117, 7.09878E-005,   170.40, 2.6688E-005,   -60.52, 7.44292E-005,  -151.35,          0,     0.00, 0.000130933,  -158.93, 7.09878E-005,    -9.60, 2.6688E-005,   119.48, 7.44292E-005,    28.65,          0,     0.00, 0.000130934,    21.07
Line.L_BSB_MT_6119,    14.1643,   155.15,    14.1641,    35.15,    14.1643,   -84.85,          0,     0.00, 0.000143512,  -143.71,    14.1643,   -24.85,    14.1641,  -144.85,    14.1643,    95.15,          0,     0.00, 0.000143512,    36.29
Line.L_BSB_MT_6121,    1.15915,   -24.83,    1.15916,  -144.83,    1.15921,    95.17,          0,     0.00, 5.21903E-005,    48.15,    1.15915,   155.17,    1.15916,    35.17,    1.15921,   -84.83,          0,     0.00, 5.21903E-005,  -131.85
Line.L_BSB_MT_170699,    1.72629,   -21.50,    1.72622,  -141.50,    1.72626,    98.50,          0,     0.00, 4.03808E-005,  -179.63,    1.72629,   158.50,    1.72622,    38.50,    1.72626,   -81.50,          0,     0.00, 4.03809E-005,     0.37
Line.L_BSB_MT_170700, 2.21648E-010,   -66.80, 1.69703E-010,   -30.96, 1.19998E-010,    75.96,          0,     0.00, 3.14806E-010,   -33.69, 1.45519E-010,   126.87, 1.30156E-010,   153.43, 6.50781E-011,   116.57,          0,     0.00, 3.29272E-010,   135.00
Line.L_BSB_MT_170701, 1.16415E-010,   180.00, 4.1159E-011,   -45.00, 8.23181E-011,   135.00,          0,     0.00, 1.48401E-010,   168.69, 1.56729E-010,    21.80,          0,     0.00, 6.50781E-011,  -116.57,          0,     0.00, 1.16415E-010,     0.00
Line.L_BSB_MT_5108,    260.908,   -25.17,    260.908,  -145.17,    260.909,    94.83,          0,     0.00,  0.0019297,    96.49,    260.908,   154.83,    260.908,    34.83,    260.909,   -85.17,          0,     0.00,  0.0019297,   -83.51
Line.L_BSB_MT_5110,    8.66129,   -24.85,    8.66135,  -144.85,    8.66144,    95.15,          0,     0.00, 0.000214115,    85.46,    8.66129,   155.15,    8.66135,    35.15,    8.66144,   -84.85,          0,     0.00, 0.000214115,   -94.54
Line.L_BSB_MT_5111,   0.515281,   155.17,   0.515211,    35.17,   0.515205,   -84.84,          0,     0.00, 0.000191769,  -177.88,   0.515281,   -24.83,   0.515211,  -144.83,   0.515205,    95.16,          0,     0.00, 0.000191769,     2.12
Line.L_BSB_MT_5120,    202.405,   154.73,    202.405,    34.73,    202.406,   -85.27,          0,     0.00, 0.00148544,   -44.23,    202.405,   -25.27,    202.405,  -145.27,    202.406,    94.73,          0,     0.00, 0.00148544,   135.77
Line.L_BSB_MT_5122,    202.405,   154.73,    202.405,    34.73,    202.406,   -85.27,          0,     0.00, 0.00148544,   -44.23,    202.405,   -25.27,    202.405,  -145.27,    202.406,    94.73,          0,     0.00, 0.00148544,   135.77
Line.L_BSB_MT_5123,    57.8071,   154.44,    57.8072,    34.44,    57.8076,   -85.56,          0,     0.00, 0.000323247,   -59.11,    57.8071,   -25.56,    57.8072,  -145.56,    57.8076,    94.44,          0,     0.00, 0.000323247,   120.89
Line.L_BSB_MT_5124,    5.48162,   -25.10,    5.48162,  -145.10,    5.48162,    94.90,          0,     0.00, 1.53353E-006,   -28.60,    5.48162,   154.90,    5.48162,    34.90,    5.48162,   -85.10,          0,     0.00, 1.53247E-006,   151.42
Line.L_BSB_MT_6222,    39.9586,   154.75,    39.9585,    34.75,    39.9587,   -85.25,          0,     0.00, 1.74786E-005,   -42.97,    39.9586,   -25.25,    39.9585,  -145.25,    39.9587,    94.75,          0,     0.00, 1.74786E-005,   137.03
Line.L_BSB_MT_3748_1,    58.5046,   -24.84,    58.5041,  -144.84,    58.5045,    95.16,          0,     0.00, 0.00115809,    45.44,    58.5046,   155.16,    58.5041,    35.16,    58.5045,   -84.84,          0,     0.00, 0.00115809,  -134.56
Line.L_65485804, 3.13458E-010,   111.80, 7.567E-010,    22.62, 5.4913E-010,  -122.01,          0,     0.00, 3.13458E-010,    21.80, 2.46954E-010,   -45.00, 8.47516E-010,  -164.05, 5.82077E-010,    53.13,          0,     0.00, 2.96802E-010,   168.69
Line.L_65485806, 4.1159E-010,    98.13, 2.91038E-010,  -126.87, 5.73279E-010,  -156.04,          0,     0.00, 7.58935E-010,  -175.60, 5.82077E-011,     0.00, 4.07454E-010,     0.00, 4.69285E-010,   -29.74,          0,     0.00, 9.03626E-010,   -14.93
Line.L_65590863,    260.908,   -25.17,    260.908,  -145.17,    260.909,    94.83,          0,     0.00, 0.00203326,    99.84,    260.908,   154.83,    260.908,    34.83,    260.909,   -85.17,          0,     0.00, 0.00203326,   -80.16
Line.L_65590866,    260.908,   -25.17,    260.908,  -145.17,    260.909,    94.83,          0,     0.00, 0.00203326,    99.84,    260.908,   154.83,    260.908,    34.83,    260.909,   -85.17,          0,     0.00, 0.00203326,   -80.16
Line.L_65590869,    260.908,   -25.17,    260.908,  -145.17,    260.909,    94.83,          0,     0.00, 0.00203326,    99.84,    260.908,   154.83,    260.908,    34.83,    260.909,   -85.17,          0,     0.00, 0.00203326,   -80.16
Line.L_65590871,    260.908,   -25.17,    260.908,  -145.17,    260.909,    94.83,          0,     0.00, 0.00203326,    99.84,    260.908,   154.83,    260.908,    34.83,    260.909,   -85.17,          0,     0.00, 0.00203326,   -80.16
Line.L_65490848,    260.908,   154.83,    260.908,    34.83,    260.909,   -85.17,          0,     0.00, 0.00203326,   -80.16,    260.908,   -25.17,    260.908,  -145.17,    260.909,    94.83,          0,     0.00, 0.00203326,    99.84
Line.L_BSB_MT_3748_2,    57.7266,   -24.84,     57.726,  -144.84,    57.7264,    95.16,          0,     0.00, 0.00115809,    45.45,    57.7266,   155.16,     57.726,    35.16,    57.7264,   -84.84,          0,     0.00, 0.00115809,  -134.55
Line.L_TR_MT_ALIM11,    202.405,   -25.27,    202.405,  -145.27,    202.406,    94.73,          0,     0.00, 0.00148544,   135.77,    202.405,   154.73,    202.405,    34.73,    202.406,   -85.27,          0,     0.00, 0.00148544,   -44.23
Line.L_SUB_TR_MT_18,    260.908,   -25.17,    260.908,  -145.17,    260.909,    94.83,          0,     0.00, 0.00203326,    99.84,    260.908,   154.83,    260.908,    34.83,    260.909,   -85.17,          0,     0.00, 0.00203326,   -80.16
...